/*--------------------------------*- C++ -*----------------------------------*\
| =========                 |                                                 |
| \\      /  F ield         | OpenFOAM: The Open Source CFD Toolbox           |
|  \\    /   O peration     | Version:  v2106                                 |
|   \\  /    A nd           | Website:  www.openfoam.com                      |
|    \\/     M anipulation  |                                                 |
\*---------------------------------------------------------------------------*/
FoamFile
{
    version     2.0;
    format      ascii;
    arch        "LSB;label=32;scalar=64";
    class       featureEdgeMesh;
    location    "constant/triSurface";
    object      porousMedia.eMesh;
}
// * * * * * * * * * * * * * * * * * * * * * * * * * * * * * * * * * * * * * //


// points:

9340
(
(-0.00089999998454005 -0.00089999998454005 0)
(-0.00089999998454005 0.00089999998454005 0)
(0.00089999998454005 0.00089999998454005 0)
(0.00089999998454005 -0.00089999998454005 0)
(-0.0020000000949949 -0.0020000000949949 -0.00019999999494758)
(-0.0020000000949949 0.0020000000949949 -0.00019999999494758)
(-0.0020000000949949 -0.0020000000949949 -0.0040000001899898)
(-0.0020000000949949 0.0020000000949949 -0.0040000001899898)
(0.0020000000949949 -0.0020000000949949 -0.00019999999494758)
(0.0020000000949949 0.0020000000949949 -0.00019999999494758)
(0.0020000000949949 0.0020000000949949 -0.0040000001899898)
(0.0020000000949949 -0.0020000000949949 -0.0040000001899898)
(-0.00089142139768228 0.00089142139768228 0.0016414213459939)
(-0.00089142139768228 0.00089142139768228 -0.00014142139116302)
(0.00089142139768228 0.00089142139768228 0.0016414213459939)
(0.00089142139768228 0.00089142139768228 -0.00014142139116302)
(-0.00089142139768228 0.00089142139768228 0.0031414213590324)
(-0.00089142139768228 0.00089142139768228 0.0013585785636678)
(0.00089142139768228 0.00089142139768228 0.0031414213590324)
(0.00089142139768228 0.00089142139768228 0.0013585785636678)
(-0.00089142139768228 0.00089142139768228 0.0046414216049016)
(-0.00089142139768228 0.00089142139768228 0.0028585786931217)
(0.00089142139768228 0.00089142139768228 0.0046414216049016)
(0.00089142139768228 0.00089142139768228 0.0028585786931217)
(-0.00089142139768228 0.00089142139768228 0.0061414213851094)
(-0.00089142139768228 0.00089142139768228 0.0043585784733295)
(0.00089142139768228 0.00089142139768228 0.0061414213851094)
(0.00089142139768228 0.00089142139768228 0.0043585784733295)
(-0.00089142139768228 0.00089142139768228 0.0076414211653173)
(-0.00089142139768228 0.00089142139768228 0.0058585787191987)
(0.00089142139768228 0.00089142139768228 0.0076414211653173)
(0.00089142139768228 0.00089142139768228 0.0058585787191987)
(-0.00060857861535624 0.00060857861535624 0.0013585785636678)
(-0.00060857861535624 0.00060857861535624 0.00014142139116302)
(0.00060857861535624 0.00060857861535624 0.0013585785636678)
(0.00060857861535624 0.00060857861535624 0.00014142139116302)
(-0.00060857861535624 0.00060857861535624 0.0028585786931217)
(-0.00060857861535624 0.00060857861535624 0.0016414213459939)
(0.00060857861535624 0.00060857861535624 0.0028585786931217)
(0.00060857861535624 0.00060857861535624 0.0016414213459939)
(-0.00060857861535624 0.00060857861535624 0.0043585784733295)
(-0.00060857861535624 0.00060857861535624 0.0031414213590324)
(0.00060857861535624 0.00060857861535624 0.0043585784733295)
(0.00060857861535624 0.00060857861535624 0.0031414213590324)
(-0.00060857861535624 0.00060857861535624 0.0058585787191987)
(-0.00060857861535624 0.00060857861535624 0.0046414216049016)
(0.00060857861535624 0.00060857861535624 0.0058585787191987)
(0.00060857861535624 0.00060857861535624 0.0046414216049016)
(-0.00060857861535624 0.00060857861535624 0.0073585784994066)
(-0.00060857861535624 0.00060857861535624 0.0061414213851094)
(0.00060857861535624 0.00060857861535624 0.0073585784994066)
(0.00060857861535624 0.00060857861535624 0.0061414213851094)
(-0.00089999998454005 -0.00089999998454005 -0.00019999999494758)
(-0.00089999998454005 0.00089999998454005 -0.00019999999494758)
(0.00089999998454005 0.00089999998454005 -0.00019999999494758)
(0.00089999998454005 -0.00089999998454005 -0.00019999999494758)
(-0.00075000000651926 0.00075000000651926 0)
(-0.00075000000651926 -0.00075000000651926 0)
(0.00075000000651926 -0.00075000000651926 0)
(0.00075000000651926 0.00075000000651926 0)
(0.00075000000651926 0.00075000000651926 -0.0040000001899898)
(0.00075000000651926 -0.00075000000651926 -0.0040000001899898)
(-0.00075000000651926 0.00075000000651926 -0.0040000001899898)
(-0.00075000000651926 -0.00075000000651926 -0.0040000001899898)
(-0.00094953377265483 -0.00047500000800937 0.0015136485453695)
(-0.00094953377265483 -0.00047500000800937 0.0014863514807075)
(-0.00094581680605188 -0.00047500000800937 0.0014593087835237)
(-0.00093845219817013 -0.00047500000800937 0.0014330240665004)
(-0.00092757702805102 -0.00047500000800937 0.001407986972481)
(-0.00091339397476986 -0.00047500000800937 0.0013846639776602)
(-0.00089616718469188 -0.00047500000800937 0.0013634894276038)
(-0.00089142139768228 -0.00060857861535624 0.0013585785636678)
(-0.00087621761485934 -0.00047500000800937 0.001344857737422)
(-0.00085391680477187 -0.00047500000800937 0.0013291160576046)
(-0.00085391680477187 0 0.0013291160576046)
(-0.00082968024071306 -0.00047500000800937 0.0013165577547625)
(-0.00082968024071306 0 0.0013165577547625)
(-0.0008039593230933 -0.00047500000800937 0.001307416590862)
(-0.0008039593230933 0 0.001307416590862)
(-0.00077723333379254 0 0.0013018627651036)
(-0.00094581680605188 -0.00047500000800937 0.0015406912425533)
(-0.00093845219817013 -0.00047500000800937 0.0015669759595767)
(-0.00092757702805102 -0.00047500000800937 0.001592013053596)
(-0.00091339397476986 -0.00047500000800937 0.0016153360484168)
(-0.00089616718469188 -0.00047500000800937 0.0016365105984733)
(-0.00089142139768228 -0.00089142139768228 0.0016414213459939)
(-0.00087621761485934 -0.00047500000800937 0.001655142288655)
(-0.00085391680477187 -0.00047500000800937 0.0016708839684725)
(-0.00082968024071306 -0.00047500000800937 0.0016834422713146)
(-0.0008039593230933 -0.00047500000800937 0.0016925834352151)
(-0.00069604063173756 -0.00047500000800937 0.0016925834352151)
(-0.00067031977232546 -0.00047500000800937 0.0016834422713146)
(-0.00064608320826665 -0.00047500000800937 0.0016708839684725)
(-0.00062378239817917 -0.00047500000800937 0.001655142288655)
(-0.00060857861535624 -0.00089142139768228 0.0016414213459939)
(-0.00060383282834664 -0.00047500000800937 0.0016365105984733)
(-0.00058660603826866 -0.00047500000800937 0.0016153360484168)
(-0.0005724229849875 -0.00047500000800937 0.001592013053596)
(-0.00056154781486839 -0.00047500000800937 0.0015669759595767)
(-0.00055418314877898 -0.00047500000800937 0.0015406912425533)
(-0.00055046624038368 -0.00047500000800937 0.0015136485453695)
(-0.00055046624038368 -0.00047500000800937 0.0014863514807075)
(-0.00055418314877898 -0.00047500000800937 0.0014593087835237)
(-0.00056154781486839 -0.00047500000800937 0.0014330240665004)
(-0.0005724229849875 -0.00047500000800937 0.001407986972481)
(-0.00058660603826866 -0.00047500000800937 0.0013846639776602)
(-0.00060383282834664 -0.00047500000800937 0.0013634894276038)
(-0.00060857861535624 -0.00060857861535624 0.0013585785636678)
(-0.00062378239817917 -0.00047500000800937 0.001344857737422)
(-0.00064608320826665 -0.00047500000800937 0.0013291160576046)
(-0.00067031977232546 0 0.0013165577547625)
(-0.00067031977232546 -0.00047500000800937 0.0013165577547625)
(-0.00069604063173756 0 0.001307416590862)
(-0.00069604063173756 -0.00047500000800937 0.001307416590862)
(-0.00072276667924598 0 0.0013018627651036)
(-0.00075000000651926 0 0.001300000003539)
(-0.00055046624038368 0.00047500000800937 0.0015136485453695)
(-0.00055046624038368 0.00047500000800937 0.0014863514807075)
(-0.00055418314877898 0.00047500000800937 0.0014593087835237)
(-0.00056154781486839 0.00047500000800937 0.0014330240665004)
(-0.0005724229849875 0.00047500000800937 0.001407986972481)
(-0.00058660603826866 0.00047500000800937 0.0013846639776602)
(-0.00060383282834664 0.00047500000800937 0.0013634894276038)
(-0.00062378239817917 0.00047500000800937 0.001344857737422)
(-0.00064608320826665 0.00047500000800937 0.0013291160576046)
(-0.00064608320826665 0 0.0013291160576046)
(-0.00067031977232546 0.00047500000800937 0.0013165577547625)
(-0.00069604063173756 0.00047500000800937 0.001307416590862)
(-0.00055418314877898 0.00047500000800937 0.0015406912425533)
(-0.00056154781486839 0.00047500000800937 0.0015669759595767)
(-0.0005724229849875 0.00047500000800937 0.001592013053596)
(-0.00058660603826866 0.00047500000800937 0.0016153360484168)
(-0.00060383282834664 0.00047500000800937 0.0016365105984733)
(-0.00060857861535624 0.00089142139768228 0.0016414213459939)
(-0.00062378239817917 0.00047500000800937 0.001655142288655)
(-0.00064608320826665 0.00047500000800937 0.0016708839684725)
(-0.00067031977232546 0.00047500000800937 0.0016834422713146)
(-0.00069604063173756 0.00047500000800937 0.0016925834352151)
(-0.0008039593230933 0.00047500000800937 0.0016925834352151)
(-0.00082968024071306 0.00047500000800937 0.0016834422713146)
(-0.00085391680477187 0.00047500000800937 0.0016708839684725)
(-0.00087621761485934 0.00047500000800937 0.001655142288655)
(-0.00089616718469188 0.00047500000800937 0.0016365105984733)
(-0.00091339397476986 0.00047500000800937 0.0016153360484168)
(-0.00092757702805102 0.00047500000800937 0.001592013053596)
(-0.00093845219817013 0.00047500000800937 0.0015669759595767)
(-0.00094581680605188 0.00047500000800937 0.0015406912425533)
(-0.00094953377265483 0.00047500000800937 0.0015136485453695)
(-0.00094953377265483 0.00047500000800937 0.0014863514807075)
(-0.00094581680605188 0.00047500000800937 0.0014593087835237)
(-0.00093845219817013 0.00047500000800937 0.0014330240665004)
(-0.00092757702805102 0.00047500000800937 0.001407986972481)
(-0.00091339397476986 0.00047500000800937 0.0013846639776602)
(-0.00089616718469188 0.00047500000800937 0.0013634894276038)
(-0.00089142139768228 0.00060857861535624 0.0013585785636678)
(-0.00087621761485934 0.00047500000800937 0.001344857737422)
(-0.00085391680477187 0.00047500000800937 0.0013291160576046)
(-0.00082968024071306 0.00047500000800937 0.0013165577547625)
(-0.0008039593230933 0.00047500000800937 0.001307416590862)
(-0.00075000000651926 0 0.001700000022538)
(-0.00077723333379254 0 0.0016981372609735)
(-0.0008039593230933 0 0.0016925834352151)
(-0.00082968024071306 0 0.0016834422713146)
(-0.00085391680477187 0 0.0016708839684725)
(-0.00087621761485934 0 0.001655142288655)
(-0.00089616718469188 0 0.0016365105984733)
(-0.00091339397476986 0 0.0016153360484168)
(-0.00092757702805102 0 0.001592013053596)
(-0.00093845219817013 0 0.0015669759595767)
(-0.00094581680605188 0 0.0015406912425533)
(-0.00094953377265483 0 0.0015136485453695)
(-0.00094953377265483 0 0.0014863514807075)
(-0.00094581680605188 0 0.0014593087835237)
(-0.00093845219817013 0 0.0014330240665004)
(-0.00092757702805102 0 0.001407986972481)
(-0.00091339397476986 0 0.0013846639776602)
(-0.00089616718469188 0 0.0013634894276038)
(-0.00087621761485934 0 0.001344857737422)
(-0.00072276667924598 0 0.0016981372609735)
(-0.00069604063173756 0 0.0016925834352151)
(-0.00067031977232546 0 0.0016834422713146)
(-0.00064608320826665 0 0.0016708839684725)
(-0.00062378239817917 0 0.001655142288655)
(-0.00060383282834664 0 0.0016365105984733)
(-0.00058660603826866 0 0.0016153360484168)
(-0.0005724229849875 0 0.001592013053596)
(-0.00056154781486839 0 0.0015669759595767)
(-0.00055418314877898 0 0.0015406912425533)
(-0.00055046624038368 0 0.0015136485453695)
(-0.00055046624038368 0 0.0014863514807075)
(-0.00055418314877898 0 0.0014593087835237)
(-0.00056154781486839 0 0.0014330240665004)
(-0.0005724229849875 0 0.001407986972481)
(-0.00058660603826866 0 0.0013846639776602)
(-0.00060383282834664 0 0.0013634894276038)
(-0.00062378239817917 0 0.001344857737422)
(-0.00060857861535624 -0.00060857861535624 0.00014142139116302)
(-0.00089142139768228 -0.00089142139768228 -0.00014142139116302)
(-0.00055741658434272 -0.0008039593230933 0.0012250000145286)
(-0.00056655774824321 -0.00082968024071306 0.0012250000145286)
(-0.00057911610929295 -0.00085391680477187 0.0012250000145286)
(-0.00059485773090273 -0.00087621761485934 0.0012250000145286)
(-0.00061348936287686 -0.00089616718469188 0.0012250000145286)
(-0.00063466391293332 -0.00091339397476986 0.0012250000145286)
(-0.00065798702416942 -0.00092757702805102 0.0012250000145286)
(-0.00068302405998111 -0.00093845219817013 0.0012250000145286)
(-0.00070930877700448 -0.00094581680605188 0.0012250000145286)
(-0.00073635147418827 -0.00094953377265483 0.0012250000145286)
(-0.00076364848064259 -0.00094953377265483 0.0012250000145286)
(-0.00079069123603404 -0.00094581680605188 0.0012250000145286)
(-0.00081697595305741 -0.00093845219817013 0.0012250000145286)
(-0.0008420129888691 -0.00092757702805102 0.0012250000145286)
(-0.00086533604189754 -0.00091339397476986 0.0012250000145286)
(-0.00088651059195399 -0.00089616718469188 0.0012250000145286)
(-0.00090514228213578 -0.00087621761485934 0.0012250000145286)
(-0.00092088390374556 -0.00085391680477187 0.0012250000145286)
(-0.0009334422647953 -0.00082968024071306 0.0012250000145286)
(-0.0009425834286958 -0.0008039593230933 0.0012250000145286)
(-0.00094813719624653 -0.00077723333379254 0.0012250000145286)
(-0.00095000001601875 -0.00075000000651926 0.0012250000145286)
(-0.00094813719624653 -0.00072276667924598 0.0012250000145286)
(-0.0009425834286958 -0.00069604063173756 0.0012250000145286)
(-0.0009334422647953 -0.00067031977232546 0.0012250000145286)
(-0.00092088390374556 -0.00064608320826665 0.0012250000145286)
(-0.00090514228213578 -0.00062378239817917 0.0012250000145286)
(-0.00088651059195399 -0.00060383282834664 0.0012250000145286)
(-0.00086533604189754 -0.00058660603826866 0.00075000000651926)
(-0.00086533604189754 -0.00058660603826866 0.0012250000145286)
(-0.0008420129888691 -0.0005724229849875 0.00075000000651926)
(-0.0008420129888691 -0.0005724229849875 0.0012250000145286)
(-0.00081697595305741 -0.00056154781486839 0.00075000000651926)
(-0.00079069123603404 -0.00055418314877898 0.00075000000651926)
(-0.00079069123603404 -0.00055418314877898 0.0012250000145286)
(-0.00076364848064259 -0.00055046624038368 0.00075000000651926)
(-0.00076364848064259 -0.00055046624038368 0.0012250000145286)
(-0.00073635147418827 -0.00055046624038368 0.00075000000651926)
(-0.0008420129888691 -0.0005724229849875 0.00027499999850988)
(-0.00086533604189754 -0.00058660603826866 0.00027499999850988)
(-0.00088651059195399 -0.00060383282834664 0.00075000000651926)
(-0.00088651059195399 -0.00060383282834664 0.00027499999850988)
(-0.00090514228213578 -0.00062378239817917 0.00075000000651926)
(-0.00090514228213578 -0.00062378239817917 0.00027499999850988)
(-0.00092088390374556 -0.00064608320826665 0.00075000000651926)
(-0.00092088390374556 -0.00064608320826665 0.00027499999850988)
(-0.0009334422647953 -0.00067031977232546 0.00075000000651926)
(-0.0009334422647953 -0.00067031977232546 0.00027499999850988)
(-0.0009425834286958 -0.00069604063173756 0.00075000000651926)
(-0.0009425834286958 -0.00069604063173756 0.00027499999850988)
(-0.00094813719624653 -0.00072276667924598 0.00075000000651926)
(-0.00094813719624653 -0.00072276667924598 0.00027499999850988)
(-0.00095000001601875 -0.00075000000651926 0.00075000000651926)
(-0.00095000001601875 -0.00075000000651926 0.00027499999850988)
(-0.00094813719624653 -0.00077723333379254 0.00075000000651926)
(-0.00094813719624653 -0.00077723333379254 0.00027499999850988)
(-0.0009425834286958 -0.0008039593230933 0.00075000000651926)
(-0.0009425834286958 -0.0008039593230933 0.00027499999850988)
(-0.0009334422647953 -0.00082968024071306 0.00075000000651926)
(-0.0009334422647953 -0.00082968024071306 0.00027499999850988)
(-0.00092088390374556 -0.00085391680477187 0.00075000000651926)
(-0.00092088390374556 -0.00085391680477187 0.00027499999850988)
(-0.00090514228213578 -0.00087621761485934 0.00075000000651926)
(-0.00090514228213578 -0.00087621761485934 0.00027499999850988)
(-0.00088651059195399 -0.00089616718469188 0.00075000000651926)
(-0.00088651059195399 -0.00089616718469188 0.00027499999850988)
(-0.00086533604189754 -0.00091339397476986 0.00075000000651926)
(-0.00086533604189754 -0.00091339397476986 0.00027499999850988)
(-0.0008420129888691 -0.00092757702805102 0.00075000000651926)
(-0.0008420129888691 -0.00092757702805102 0.00027499999850988)
(-0.00081697595305741 -0.00093845219817013 0.00075000000651926)
(-0.00081697595305741 -0.00093845219817013 0.00027499999850988)
(-0.00079069123603404 -0.00094581680605188 0.00075000000651926)
(-0.00079069123603404 -0.00094581680605188 0.00027499999850988)
(-0.00076364848064259 -0.00094953377265483 0.00075000000651926)
(-0.00076364848064259 -0.00094953377265483 0.00027499999850988)
(-0.00073635147418827 -0.00094953377265483 0.00075000000651926)
(-0.00073635147418827 -0.00094953377265483 0.00027499999850988)
(-0.00070930877700448 -0.00094581680605188 0.00075000000651926)
(-0.00070930877700448 -0.00094581680605188 0.00027499999850988)
(-0.00068302405998111 -0.00093845219817013 0.00075000000651926)
(-0.00068302405998111 -0.00093845219817013 0.00027499999850988)
(-0.00065798702416942 -0.00092757702805102 0.00075000000651926)
(-0.00065798702416942 -0.00092757702805102 0.00027499999850988)
(-0.00063466391293332 -0.00091339397476986 0.00075000000651926)
(-0.00063466391293332 -0.00091339397476986 0.00027499999850988)
(-0.00061348936287686 -0.00089616718469188 0.00075000000651926)
(-0.00061348936287686 -0.00089616718469188 0.00027499999850988)
(-0.00059485773090273 -0.00087621761485934 0.00075000000651926)
(-0.00059485773090273 -0.00087621761485934 0.00027499999850988)
(-0.00057911610929295 -0.00085391680477187 0.00075000000651926)
(-0.00057911610929295 -0.00085391680477187 0.00027499999850988)
(-0.00056655774824321 -0.00082968024071306 0.00075000000651926)
(-0.00056655774824321 -0.00082968024071306 0.00027499999850988)
(-0.00055741658434272 -0.0008039593230933 0.00075000000651926)
(-0.00055741658434272 -0.0008039593230933 0.00027499999850988)
(-0.00055186281679198 -0.00077723333379254 0.00075000000651926)
(-0.00054999999701977 -0.00075000000651926 0.00075000000651926)
(-0.00055186281679198 -0.00072276667924598 0.00075000000651926)
(-0.00055741658434272 -0.00069604063173756 0.00075000000651926)
(-0.00055741658434272 -0.00069604063173756 0.00027499999850988)
(-0.00056655774824321 -0.00067031977232546 0.00075000000651926)
(-0.00056655774824321 -0.00067031977232546 0.00027499999850988)
(-0.00057911610929295 -0.00064608320826665 0.00075000000651926)
(-0.00057911610929295 -0.00064608320826665 0.00027499999850988)
(-0.00059485773090273 -0.00062378239817917 0.00075000000651926)
(-0.00059485773090273 -0.00062378239817917 0.00027499999850988)
(-0.00061348936287686 -0.00060383282834664 0.00075000000651926)
(-0.00061348936287686 -0.00060383282834664 0.00027499999850988)
(-0.00063466391293332 -0.00058660603826866 0.00075000000651926)
(-0.00063466391293332 -0.00058660603826866 0.00027499999850988)
(-0.00065798702416942 -0.0005724229849875 0.00027499999850988)
(-0.00070930877700448 -0.00055418314877898 0.00075000000651926)
(-0.00068302405998111 -0.00056154781486839 0.00075000000651926)
(-0.00065798702416942 -0.0005724229849875 0.00075000000651926)
(-0.00065798702416942 -0.0005724229849875 0.0012250000145286)
(-0.00063466391293332 -0.00058660603826866 0.0012250000145286)
(-0.00061348936287686 -0.00060383282834664 0.0012250000145286)
(-0.00059485773090273 -0.00062378239817917 0.0012250000145286)
(-0.00057911610929295 -0.00064608320826665 0.0012250000145286)
(-0.00056655774824321 -0.00067031977232546 0.0012250000145286)
(-0.00055741658434272 -0.00069604063173756 0.0012250000145286)
(-0.00070930877700448 -0.00055418314877898 0.00027499999850988)
(-0.00073635147418827 -0.00055046624038368 0.00027499999850988)
(0 -0.00072276667924598 0.0013018627651036)
(-0.00047500000800937 -0.00069604063173756 0.001307416590862)
(0 -0.00069604063173756 0.001307416590862)
(0.00047500000800937 -0.00069604063173756 0.001307416590862)
(0.00047500000800937 -0.00067031977232546 0.0013165577547625)
(0 -0.00067031977232546 0.0013165577547625)
(0.00047500000800937 -0.00064608320826665 0.0013291160576046)
(0 -0.00064608320826665 0.0013291160576046)
(0.00047500000800937 -0.00062378239817917 0.001344857737422)
(0 -0.00062378239817917 0.001344857737422)
(0.00047500000800937 -0.00060383282834664 0.0013634894276038)
(0 -0.00060383282834664 0.0013634894276038)
(0.00047500000800937 -0.00058660603826866 0.0013846639776602)
(0 -0.00058660603826866 0.0013846639776602)
(0.00047500000800937 -0.0005724229849875 0.001407986972481)
(0 -0.0005724229849875 0.001407986972481)
(0.00047500000800937 -0.00056154781486839 0.0014330240665004)
(0 -0.00056154781486839 0.0014330240665004)
(0.00047500000800937 -0.00055418314877898 0.0014593087835237)
(0 -0.00055418314877898 0.0014593087835237)
(0.00047500000800937 -0.00055046624038368 0.0014863514807075)
(0 -0.00055046624038368 0.0014863514807075)
(0.00047500000800937 -0.00055046624038368 0.0015136485453695)
(0 -0.00055046624038368 0.0015136485453695)
(0.00047500000800937 -0.00055418314877898 0.0015406912425533)
(0 -0.00055418314877898 0.0015406912425533)
(0.00047500000800937 -0.00056154781486839 0.0015669759595767)
(0 -0.00056154781486839 0.0015669759595767)
(0.00047500000800937 -0.0005724229849875 0.001592013053596)
(0 -0.0005724229849875 0.001592013053596)
(0.00047500000800937 -0.00058660603826866 0.0016153360484168)
(0 -0.00058660603826866 0.0016153360484168)
(0.00047500000800937 -0.00060383282834664 0.0016365105984733)
(0 -0.00060383282834664 0.0016365105984733)
(0.00047500000800937 -0.00062378239817917 0.001655142288655)
(0 -0.00062378239817917 0.001655142288655)
(0.00047500000800937 -0.00064608320826665 0.0016708839684725)
(0 -0.00064608320826665 0.0016708839684725)
(0.00047500000800937 -0.00067031977232546 0.0016834422713146)
(0 -0.00067031977232546 0.0016834422713146)
(0.00047500000800937 -0.00069604063173756 0.0016925834352151)
(0 -0.00069604063173756 0.0016925834352151)
(0 -0.00072276667924598 0.0016981372609735)
(0 -0.00075000000651926 0.001700000022538)
(0 -0.00077723333379254 0.0016981372609735)
(0.00047500000800937 -0.0008039593230933 0.0016925834352151)
(0 -0.0008039593230933 0.0016925834352151)
(0.00047500000800937 -0.00082968024071306 0.0016834422713146)
(0 -0.00082968024071306 0.0016834422713146)
(0.00047500000800937 -0.00085391680477187 0.0016708839684725)
(0 -0.00085391680477187 0.0016708839684725)
(0.00047500000800937 -0.00087621761485934 0.001655142288655)
(0 -0.00087621761485934 0.001655142288655)
(0.00047500000800937 -0.00089616718469188 0.0016365105984733)
(0 -0.00089616718469188 0.0016365105984733)
(0.00047500000800937 -0.00091339397476986 0.0016153360484168)
(0 -0.00091339397476986 0.0016153360484168)
(0.00047500000800937 -0.00092757702805102 0.001592013053596)
(0 -0.00092757702805102 0.001592013053596)
(0.00047500000800937 -0.00093845219817013 0.0015669759595767)
(0 -0.00093845219817013 0.0015669759595767)
(0.00047500000800937 -0.00094581680605188 0.0015406912425533)
(0 -0.00094581680605188 0.0015406912425533)
(0.00047500000800937 -0.00094953377265483 0.0015136485453695)
(0 -0.00094953377265483 0.0015136485453695)
(0.00047500000800937 -0.00094953377265483 0.0014863514807075)
(0 -0.00094953377265483 0.0014863514807075)
(0.00047500000800937 -0.00094581680605188 0.0014593087835237)
(0 -0.00094581680605188 0.0014593087835237)
(0.00047500000800937 -0.00093845219817013 0.0014330240665004)
(0 -0.00093845219817013 0.0014330240665004)
(0.00047500000800937 -0.00092757702805102 0.001407986972481)
(0 -0.00092757702805102 0.001407986972481)
(0.00047500000800937 -0.00091339397476986 0.0013846639776602)
(0 -0.00091339397476986 0.0013846639776602)
(0.00047500000800937 -0.00089616718469188 0.0013634894276038)
(0 -0.00089616718469188 0.0013634894276038)
(0.00047500000800937 -0.00087621761485934 0.001344857737422)
(0 -0.00087621761485934 0.001344857737422)
(0.00047500000800937 -0.00085391680477187 0.0013291160576046)
(0 -0.00085391680477187 0.0013291160576046)
(0.00047500000800937 -0.00082968024071306 0.0013165577547625)
(0.00047500000800937 -0.0008039593230933 0.001307416590862)
(0 -0.0008039593230933 0.001307416590862)
(0 -0.00077723333379254 0.0013018627651036)
(-0.00047500000800937 -0.0008039593230933 0.001307416590862)
(-0.00047500000800937 -0.00082968024071306 0.0013165577547625)
(0 -0.00082968024071306 0.0013165577547625)
(-0.00047500000800937 -0.00085391680477187 0.0013291160576046)
(-0.00047500000800937 -0.00087621761485934 0.001344857737422)
(-0.00047500000800937 -0.00089616718469188 0.0013634894276038)
(-0.00047500000800937 -0.00091339397476986 0.0013846639776602)
(-0.00047500000800937 -0.00092757702805102 0.001407986972481)
(-0.00047500000800937 -0.00093845219817013 0.0014330240665004)
(-0.00047500000800937 -0.00094581680605188 0.0014593087835237)
(-0.00047500000800937 -0.00094953377265483 0.0014863514807075)
(-0.00047500000800937 -0.00094953377265483 0.0015136485453695)
(-0.00047500000800937 -0.00094581680605188 0.0015406912425533)
(-0.00047500000800937 -0.00093845219817013 0.0015669759595767)
(-0.00047500000800937 -0.00092757702805102 0.001592013053596)
(-0.00047500000800937 -0.00091339397476986 0.0016153360484168)
(-0.00047500000800937 -0.00089616718469188 0.0016365105984733)
(-0.00047500000800937 -0.00087621761485934 0.001655142288655)
(-0.00047500000800937 -0.00085391680477187 0.0016708839684725)
(-0.00047500000800937 -0.00082968024071306 0.0016834422713146)
(-0.00047500000800937 -0.0008039593230933 0.0016925834352151)
(-0.00047500000800937 -0.00069604063173756 0.0016925834352151)
(-0.00047500000800937 -0.00067031977232546 0.0016834422713146)
(-0.00047500000800937 -0.00064608320826665 0.0016708839684725)
(-0.00047500000800937 -0.00062378239817917 0.001655142288655)
(-0.00047500000800937 -0.00060383282834664 0.0016365105984733)
(-0.00047500000800937 -0.00058660603826866 0.0016153360484168)
(-0.00047500000800937 -0.0005724229849875 0.001592013053596)
(-0.00047500000800937 -0.00056154781486839 0.0015669759595767)
(-0.00047500000800937 -0.00055418314877898 0.0015406912425533)
(-0.00047500000800937 -0.00055046624038368 0.0015136485453695)
(-0.00047500000800937 -0.00055046624038368 0.0014863514807075)
(-0.00047500000800937 -0.00055418314877898 0.0014593087835237)
(-0.00047500000800937 -0.00056154781486839 0.0014330240665004)
(-0.00047500000800937 -0.0005724229849875 0.001407986972481)
(-0.00047500000800937 -0.00058660603826866 0.0013846639776602)
(-0.00047500000800937 -0.00060383282834664 0.0013634894276038)
(-0.00047500000800937 -0.00062378239817917 0.001344857737422)
(-0.00047500000800937 -0.00064608320826665 0.0013291160576046)
(-0.00047500000800937 -0.00067031977232546 0.0013165577547625)
(-0.00089142139768228 -0.00060857861535624 0.0016414213459939)
(-0.00060857861535624 -0.00089142139768228 0.0013585785636678)
(0 -0.00075000000651926 0.001300000003539)
(0.00060857861535624 -0.00089142139768228 0.0013585785636678)
(0.00089142139768228 -0.00089142139768228 0.0016414213459939)
(0.00089142139768228 -0.00060857861535624 0.0016414213459939)
(0.00060857861535624 -0.00060857861535624 0.0013585785636678)
(0.00055186281679198 -0.00072276667924598 0.00075000000651926)
(0.00055741658434272 -0.00069604063173756 0.0012250000145286)
(0.00055741658434272 -0.00069604063173756 0.00075000000651926)
(0.00055741658434272 -0.00069604063173756 0.00027499999850988)
(0.00056655774824321 -0.00067031977232546 0.00027499999850988)
(0.00056655774824321 -0.00067031977232546 0.00075000000651926)
(0.00057911610929295 -0.00064608320826665 0.00027499999850988)
(0.00057911610929295 -0.00064608320826665 0.00075000000651926)
(0.00059485773090273 -0.00062378239817917 0.00027499999850988)
(0.00059485773090273 -0.00062378239817917 0.00075000000651926)
(0.00061348936287686 -0.00060383282834664 0.00027499999850988)
(0.00061348936287686 -0.00060383282834664 0.00075000000651926)
(0.00063466391293332 -0.00058660603826866 0.00027499999850988)
(0.00063466391293332 -0.00058660603826866 0.00075000000651926)
(0.00065798702416942 -0.0005724229849875 0.00027499999850988)
(0.00065798702416942 -0.0005724229849875 0.00075000000651926)
(0.00068302405998111 -0.00056154781486839 0.00075000000651926)
(0.00070930877700448 -0.00055418314877898 0.00075000000651926)
(0.00073635147418827 -0.00055046624038368 0.00075000000651926)
(0.00076364848064259 -0.00055046624038368 0.00027499999850988)
(0.00076364848064259 -0.00055046624038368 0.00075000000651926)
(0.00079069123603404 -0.00055418314877898 0.00027499999850988)
(0.00079069123603404 -0.00055418314877898 0.00075000000651926)
(0.00081697595305741 -0.00056154781486839 0.00075000000651926)
(0.0008420129888691 -0.0005724229849875 0.00027499999850988)
(0.0008420129888691 -0.0005724229849875 0.00075000000651926)
(0.00086533604189754 -0.00058660603826866 0.00027499999850988)
(0.00086533604189754 -0.00058660603826866 0.00075000000651926)
(0.00088651059195399 -0.00060383282834664 0.00027499999850988)
(0.00088651059195399 -0.00060383282834664 0.00075000000651926)
(0.00090514228213578 -0.00062378239817917 0.00027499999850988)
(0.00090514228213578 -0.00062378239817917 0.00075000000651926)
(0.00092088390374556 -0.00064608320826665 0.00027499999850988)
(0.00092088390374556 -0.00064608320826665 0.00075000000651926)
(0.0009334422647953 -0.00067031977232546 0.00027499999850988)
(0.0009334422647953 -0.00067031977232546 0.00075000000651926)
(0.0009425834286958 -0.00069604063173756 0.00027499999850988)
(0.0009425834286958 -0.00069604063173756 0.00075000000651926)
(0.00094813719624653 -0.00072276667924598 0.00027499999850988)
(0.00094813719624653 -0.00072276667924598 0.00075000000651926)
(0.00095000001601875 -0.00075000000651926 0.00027499999850988)