/*--------------------------------*- C++ -*----------------------------------*\
| =========                 |                                                 |
| \\      /  F ield         | OpenFOAM: The Open Source CFD Toolbox           |
|  \\    /   O peration     | Version:  v2106                                 |
|   \\  /    A nd           | Website:  www.openfoam.com                      |
|    \\/     M anipulation  |                                                 |
\*---------------------------------------------------------------------------*/
FoamFile
{
    version     2.0;
    format      ascii;
    arch        "LSB;label=32;scalar=64";
    class       triSurfacePointScalarField;
    location    "constant/triSurface";
    object      porousMedia.curvature;
}
// * * * * * * * * * * * * * * * * * * * * * * * * * * * * * * * * * * * * * //

dimensions      [0 1 0 0 0 0 0];

value           nonuniform List<scalar> 
17876
(
4987.7691262422
4987.7690835891
4933.434057769
4933.4340208556
4935.6423442166
4935.6422956514
4988.3666557736
4988.3666100237
4987.7494992182
4987.7495746588
4933.4165548036
4933.4166177277
4935.6246860336
4935.6247703879
4988.3469866452
4988.3470677422
4987.7695810052
4987.7696693526
4933.4343576311
4933.434449261
4935.6426393576
4935.6427441396
4988.3671092015
4988.3672011215
4987.7740323919
4987.7739222242
4933.4392096698
4933.4391151139
4935.6474881719
4935.6473687935
4988.3715596695
4988.3714429566
4987.7550671892
4987.7550134094
4933.421065906
4933.4210011162
4935.6292753274
4935.6292008602
4988.3525758923
4988.3525192747
4987.7540317619
4987.7541308744
4933.4199282281
4933.4200247503
4935.6281555604
4935.6282626053
4988.3515451066
4988.3516471723
4987.7638461521
4987.7638102249
4933.4295467486
4933.4295109236
4935.6377737578
4935.6377339359
4988.3613595162
4988.3613224103
4962.1324791568
4962.1510121144
4960.5219294342
4960.5363711018
4962.1292846614
4962.1413815427
4960.519659172
4960.5293474801
4962.1598212033
4962.1733599674
4960.5554825889
4960.5556199
4962.1669472611
4962.1594254896
4960.5619911296
4960.5468413181
4977.9987492462
4977.9984258774
4953.7115534628
4953.7118530986
4975.3329949157
4975.3327472564
4953.7118337202
4953.711568246
4962.2080810913
4962.1572562347
4960.6084485172
4960.5406771619
4962.2231781393
4962.1465330739
4960.6226154845
4960.5384105486
4978.0402383834
4978.0400556688
4953.7520087219
4953.752167486
4975.37462833
4975.3744830755
4953.7521510643
4953.7520044782
4962.3159407512
4962.1338033334
4960.7230673589
4960.5250767012
4962.342994307
4962.1383298733
4960.7494168081
4960.5417547097
4987.7650924191
4987.7650436081
4933.430259351
4933.4302308332
4935.6385309277
4935.638493004
4988.3626177995
4988.3625668535
4978.019617493
4978.0177524069
4953.7305118574
4953.732201068
4975.3541289859
4975.3526036456
4953.7322009847
4953.7305125625
4962.4241497321
4962.0781820439
4960.8409382181
4960.4849836586
4962.468716556
4962.1113431651
4960.8859731022
4960.5338405435
4977.9874056997
4977.9858999946
4953.6997111454
4953.7010140801
4975.3219390687
4975.3207536543
4953.7010177497
4953.6996392282
4987.764103508
4987.7642074774
4933.4301584787
4933.4302321997
4935.6383607732
4935.6384392904
4988.3616104619
4988.36171514
4962.4237815231
4961.9430040135
4960.8540632818
4960.3713956756
4962.4927874663
4962.0148759162
4960.925861671
4960.4617798266
4977.9869122648
4977.9897748808
4953.7021351687
4953.6994850352
4975.3212038569
4975.3234889096
4953.6994935113
4953.7020627165
4987.7630117263
4987.7629598522
4933.4281209987
4933.4281012475
4935.6363836335
4935.6363608322
4988.3605345194
4988.3604823342
4962.336208109
4961.7961336463
4960.7833460473
4960.248472275
4962.4358638534
4961.9104961634
4960.8889320482
4960.3832330604
4977.9956047434
4977.9959197858
4953.7093873982
4953.7090966519
4975.3299995938
4975.3302363173
4953.7090890984
4953.7094321366
4962.2147504343
4961.699605728
4960.6803942496
4960.1745171017
4962.3480480121
4961.8537054818
4960.8231126612
4960.3499982898
4987.7563934745
4987.7562933053
4933.4228107364
4933.4226972437
4935.6310186584
4935.6309023408
4988.3539018853
4988.3538006589
4978.0277030759
4974.5870616455
4950.5988130891
4953.7398488493
4975.3620670508
4972.5656067897
4953.7398444497
4950.6130468284
4962.0407371179
4961.6149533928
4960.524211635
4960.1083345777
4962.2064902593
4961.8014539352
4960.7026439284
4960.3164919552
4987.768714425
4987.7688238919
4933.4335651952
4933.433658995
4935.6418356948
4935.6419342956
4988.3662394808
4988.366350191
4980.6910759772
4978.0401141064
4933.0539728044
4953.7528648608
4977.4257600021
4975.3749654761
4953.7523678569
4955.9505294044
4961.8463178173
4961.5482520084
4960.3448565774
4960.0547590531
4962.0392839195
4961.757350393
4960.5533577101
4960.285211105
4987.7647296092
4987.7646253247
4933.4301986789
4933.4300555955
4935.6384137927
4935.6383086485
4988.362240055
4988.3621456031
4977.4222866755
4978.0008889026
4930.0238458051
4953.7144047121
4974.7432708172
4975.335849997
4953.7138255018
4976.199499213
4961.5789729824
4961.7309270264
4960.092394055
4960.239980573
4961.7999170685
4961.9431699961
4960.3339511742
4960.4699678767
4987.7587366447
4987.7588227869
4933.4253873246
4933.425497216
4935.6335905953
4935.6336926411
4988.3562432054
4988.3563278446
4971.6324863867
4977.9914657574
4964.4167460419
4953.7043830365
4971.4851282883
4975.3254213506
4953.7048804622
4968.4941156959
4972.4546827297
4973.8402253728
4974.61893037
4973.7117226531
4963.5276690484
4962.3328263222
4939.2387967978
4937.5281520157
4973.2234319131
4972.9570408888
4975.059943856
4972.689352059
4962.3977397377
4963.5518703118
4937.2799548762
4939.3236450536
4973.0039913607
4974.3910208641
4973.1306218299
4973.9322431984
4965.3813759193
4961.667739162
4942.5803628331
4934.5857416137
4973.6643076019
4975.8303466425
4976.4589072843
4971.7269341902
4961.721505753
4965.4264220341
4933.9023412322
4942.8452030594
4961.6588798693
4961.6587725351
4960.1730166516
4960.172935905
4961.8807505357
4961.8806575011
4960.4143061055
4960.4141979142
4987.7713768083
4987.7714380861
4933.4355599798
4933.4356098456
4935.6438536787
4935.6438678567
4988.3689085284
4988.368959769
4986.201428605
5022.8294034718
5013.1583876858
4988.337680453
5015.2248645507
4973.5453586817
4958.20529385
4979.1405875969
5022.1434201231
4990.537098095
4992.3710786579
5016.9757411199
4973.6289716903
5015.1854513644
4977.9792378103
4958.5350337416
4986.750970534
4978.0115614002
4949.6461364735
4953.7230554043
4981.2488979931
4975.3453169045
4953.7236304287
4977.5659081313
4990.2666408446
5055.3622966872
5043.6835828852
4991.4908603227
5049.6834653886
4976.4161488126
4964.3185310961
5008.1260085684
5054.7663088977
4995.6900858966
4996.5332841256
5051.6243946784
4976.5367685467
5049.58518256
5006.3881138956
4964.6638201387
4961.7229509288
4961.5709694955
4960.232043263
4960.0844238106
4961.9351989526
4961.791902111
4960.4620170686
4960.3259710066
4987.759910596
4987.7599567853
4933.4264621534
4933.4265372891
4935.6346920676
4935.6347331319
4988.3574244645
4988.3574616354
4996.6335906227
5168.768199448
5141.2278569133
4998.4417806895
5165.0734174979
4981.3238151812
4972.0511926246
5117.6605031654
5168.3290578168
5002.2499063387
5003.8661503043
5140.4015581574
4981.3782722499
5165.0069754338
5114.9443523754
4972.4548740323
4987.7520198183
4987.7519906295
4933.4174636117
4933.4174188877
4935.6256905888
4935.6256836745
4988.3495334066
4988.3495141103
4961.8417006335
4961.5439287844
4960.340218316
4960.0504012738
4962.0346837318
4961.7530364041
4960.5487100171
4960.2808764037
4981.5361878563
4976.6890194878
4953.7348836887
4952.0966440726
4981.536197024
4976.6890215931
4953.7348836889
4952.0965706888
5003.5575799307
5189.1006004818
5181.4308052709
5003.85172644
5193.3535229521
4987.9956095476
4980.4885272502
5143.0079539928
5188.6390704259
5010.403172275
5010.1966183228
5180.7038207481
4988.0694077875
5187.9339283111
5135.1031150609
4980.9359221265
4987.7585493241
4987.7584300707
4933.4249353242
4933.4247942704
4935.6331092996
4935.633020069
4988.3560483325
4988.3559433456
4962.022268208
4961.5965136102
4960.5057816898
4960.0899313394
4962.1879965219
4961.7830148308
4960.6842199986
4960.2981055985
5000.7032656459
3976.4690485263
3853.2700751938
5000.4562951903
4031.0533486493
4983.6857811159
4978.3414107627
4021.0177012881
3971.3352316997
5006.9867723232
5006.3586644375
3859.1518464632
4983.7514380669
3996.1338203529
4000.2994152252
4978.7425805731
4981.2515731595
4975.3478077186
4953.7259723386
4977.5685546067
4986.7536792633
4978.0140677463
4949.6485946343
4953.7253973194
4987.7656286905
4987.7656548929
4933.430353751
4933.4303832399
4935.6386369418
4935.6386614956
4988.3631573122
4988.3631821867
4987.7494411755
4987.749399791
4933.4157456526
4933.4156932153
4935.6239293689
4935.6239168018
4988.3469427596
4988.3469121525
4987.7703359933
4987.7703489183
4933.4355156857
4933.4355215894
4935.6437661817
4935.6438020832
4988.3678558165
4988.3678767925
4962.2256007084
4961.7103622814
4960.6912212731
4960.1852314372
4962.3588711313
4961.8644541359
4960.8339443915
4960.3607243836
4987.7659992994
4987.7661007237
4933.4320454177
4933.4321693772
4935.6403059688
4935.640384738
4988.3635215381
4988.3636109348
4987.7714336889
4987.771427418
4933.4365408802
4933.4365402537
4935.6447994825
4935.6447624517
4988.3689555631
4988.3689393311
4995.2961542718
4246.2106495181
3938.6553794605
4996.2353098882
4248.1808407723
4976.9474433767
4973.582353458
4242.6934478793
4242.4496995325
5000.8907065681
5001.5632939936
3942.8631876515
4976.8231517175
4243.9276014026
4248.1651588266
4973.6888445421
4987.7714669386
4987.7713662184
4933.4365790986
4933.4364898504
4935.6448264081
4935.6446973488
4988.3689858358
4988.3688741248
4987.766062739
4987.766046397
4933.4321272843
4933.4321101809
4935.6403488003
4935.6403489488
4988.3635743917
4988.3635630141
4971.4749926948
4975.3155933494
4953.6954561888
4968.483930462
4971.6223379378
4977.9815875266
4964.4067976549
4953.6949587543
4987.7703790105
4987.7703714921
4933.4355984636
4933.4355445223
4935.6437587254
4935.6438153676
4988.3678743549
4988.3678966679
4987.7493135962
4987.7494459868
4933.4156155374
4933.4157101035
4935.6238180474
4935.6240120829
4988.3468203938
4988.3469798363
4962.3583236156
4961.8182327531
4960.8054139058
4960.2705297153
4962.4579963003
4961.9325855842
4960.9110072478
4960.4052847479
4987.7656066568
4987.7656223243
4933.430339541
4933.4303528954
4935.6386020888
4935.6386071068
4988.3631298475
4988.3631428741
4989.2193404957
6712.6791722335
6356.6011273143
4989.5937920672
6712.552896422
4975.187014639
4972.9496589911
6678.3689002507
6676.6940415322
4999.7122014507
4999.5878088396
6406.754910184
4969.335413052
6677.6753454703
6712.8648506068
4967.5747405374
4962.4037641378
4961.9227481372
4960.8341174283
4960.3512042923
4962.4727965245
4961.9946202564
4960.9059201297
4960.4415813126
4987.7584773588
4987.758523683
4933.4248307343
4933.4248971022
4935.6330594598
4935.6331188077
4988.3559907793
4988.3560360217
4974.7405793919
4975.3331409207
4953.7109051363
4976.1967339147
4977.4196319216
4977.9982089413
4930.0206223806
4953.7114843415
4962.4062761616
4962.0605030325
4960.8230285068
4960.4673139388
4962.4507781531
4962.0936540072
4960.8680283
4960.51613259
4987.7520623181
4987.7519186818
4933.4175087771
4933.4173497736
4935.6257397062
4935.6255940318
4988.3495772766
4988.3494366189
4981.7315226937
6758.5030414122
6424.9311546964
4981.9235281554
6766.4271738329
6765.7065999817
4966.687824399
4965.4578145906
6766.7885443675
4990.6563305195
4990.4255811504
6439.2120265659
4960.0210705746
6766.3853661448
6764.8182650504
4959.3848999739
4962.3368175767
4962.1547327397
4960.7439458248
4960.5460078857
4962.3639106642
4962.1592922016
4960.7703160637
4960.5627454299
4977.4322666405
4975.3814580716
4953.7588322322
4955.95700919
4980.697589018
4978.0466101794
4933.060392387
4953.759329246
7081.7428314061
6780.6189728747
6620.2101228065
6770.4341000871
7081.7428314061
7129.0545420655
6616.9512044962
6949.0759168818
2476.8931864909
2550.6745160364
2533.7813776154
3079.9446496783
2423.145133774
2441.0913986401
2349.1004475523
2341.4555207202
2423.145133774
2426.4914785923
2332.9614347585
2362.7071171546
4962.2408890846
4962.190007812
4960.6412223256
4960.5733555616
4962.2560293759
4962.1792762192
4960.6554254768
4960.5710758134
3376.219333578
4096.5342280274
2057.5526316615
4606.8950555164
3376.219333578
4710.7575696903
2813.9737432397
4994.8013911384
4987.7598167158
4987.7599969293
4933.4264059522
4933.4265635246
4935.6345937342
4935.6347515368
4988.3573193626
4988.3574992695
2163.1306751613
2159.1292584014
2120.4885989288
2120.1626602634
2163.1306751613
2210.1903296084
2101.0479035395
2118.2911453484
4962.1615205821
4962.1751621983
4960.5571790133
4960.5574210033
4962.1686017355
4962.1611766584
4960.5636725378
4960.5486022014
3381.8685149556
3929.1885849884
3523.6034713494
3338.466638086
3379.597642249
3924.8479707034
3320.1065167724
4725.4952730959
1999.9632267482
1948.1194200486
1964.7113146158
1972.073492568
1999.9632267482
1988.8038324679
1951.9103149372
1965.4964176332
4962.1006651365
4962.1190312274
4960.4901381896
4960.5044313357
4962.0974820571
4962.1094184882
4960.4878762956
4960.4974308123
4979.8377783233
7623.9241178151
7946.4521292888
4979.9524156097
7873.9511093216
4957.3355848152
4957.0255258366
7624.2957373921
7873.8951470985
4980.8322690207
4980.8289637994
7649.7265204742
4957.559400552
4957.3939963
7624.4515765264
7873.9522002059
3512.2411217896
3514.7867662981
4071.2420549339
3782.2369591352
3935.3896418348
3853.216949822
3880.1433903108
3891.558359635
4975.3620670508
4972.5656067897
4953.7398444497
4950.6130468284
4978.0277030759
4974.5870616455
4950.5988130891
4953.7398488493
1729.0608138051
1767.5249984251
1695.74768562
1697.6707836158
1729.0608138051
1779.4956153075
1694.3638505497
1705.1552455321
4987.7714408783
4987.7714096168
4933.4355945286
4933.4355955704
4935.6439005217
4935.6439025051
4988.3689751226
4988.3689447868
4208.7706389485
3895.2153317398
4468.0400570779
4881.787745779
4382.8767728895
4278.564562919
4782.1404806365
4531.5210182741
1554.8773183419
1587.3655561719
1538.1676904164
1528.5270799855
1554.8773183419
1598.3190662839
1538.0648676078
1545.1684967797
5227.1737069359
4905.0519553979
4882.8165709368
5227.093313642
5227.0182743448
5226.922902627
3422.6585759971
4045.2729825698
4423.6945475489
3447.8338874694
3422.6964193532
3448.1848493903
4975.3299995938
4975.3302363173
4953.7090890984
4953.7094321366
4977.9956047434
4977.9959197858
4953.7093873982
4953.7090966519
5121.3510484299
4270.702690016
4555.3313517613
5121.235792294
5121.8460522412
5121.2311320176
4585.3584935128
4274.1731484809
5177.8482696919
5576.0648574232
5641.7764588569
4578.5182736212
5506.6191867601
5116.3598394612
4979.9473215227
8048.5076527752
4979.6723086257
8150.4618528233
8043.2721541903
4956.8240092557
4956.7618742277
8043.3290693925
4979.9473222184
8048.5076520453
4979.6723122415
8150.461992549
8043.2721550102
4956.8240078574
4956.7618757162
8043.3290686762
4241.4435157138
4786.9205847856
4789.8720927295
4244.0878401442
4241.3936268796
4244.182193344
4987.7589203265
4987.7587634658
4933.4255934359
4933.4254221016
4935.6337836875
4935.6335968411
4988.3564239373
4988.3562625476
4996.1334945967
4123.0182600495
4656.4786882264
4996.0887015409
4996.0185655599
4996.0903119692
1439.7415173094
1416.7693067677
1431.0360733768
1437.765336959
1439.7415173094
1415.8038900624
1431.5069327731
1438.5917004433
6672.1901996121
4173.2788411881
4156.1025003471
6705.3329875969
6672.1599619589
6705.3103798635
4975.3212039089
4975.3234891215
4953.699493574
4953.702062962
4977.9869123373
4977.9897751582
4953.7021354134
4953.6994850978
4346.9674964605
4285.1201522985
6132.9769262283
6397.2448486212
5176.6489598647
6018.8969417738
6282.7418869916
6169.4666512035
4981.7815575882
5621.4916037909
5294.1355308361
4981.7283764079
4981.8643357217
4981.6757475729
4987.7656269887
4987.7658779622
4933.4310504084
4933.4313191668
4935.6392943691
4935.6395645585
4988.3631447984
4988.3633965474
1278.4538256076
1281.8566298156
1275.013149841
1293.801162971
1278.4538256076
1280.774229483
1272.1396773346
1280.5162134825
4975.3406079819
4975.3394223502
4953.719605503
4953.71822676
4978.0060845527
4978.0045786427
4953.7182986907
4953.7196018296
7873.8950405804
4980.8347621906
4980.8314543155
7649.7269581826
4957.5617292593
4957.3963183431
7624.4516396689
7873.9520936746
4979.8402514139
7623.9241809454
7946.4527922712
4979.954895046
7873.9510028054
4957.3379137718
4957.0278553226
7624.2958005095
6776.464299139
4000.2660637009
3968.8030782058
6775.7985291021
6776.6413268904
6775.6821072672
4453.2205820184
3418.1490953062
5687.9854356386
5676.5735161564
4305.9717776063
5144.040881628
6033.0504112648
6067.1667964862
4975.3542821611
4975.3527567321
4953.7317071873
4953.7300185878
4978.0198502643
4978.0179848961
4953.7300178669
4953.7317072754
4927.573809231
4404.3692355339
5175.106544762
4927.4723443803
4927.7646275574
4927.3109470527
4987.7710099836
4987.7707163034
4933.4357387227
4933.4354425351
4935.6440228252
4935.6437136382
4988.3685392394
4988.3682416575
4975.3389626462
4975.3388175755
4953.7179505563
4953.7178041855
4978.0043904844
4978.0042080194
4953.7178084311
4953.7179669759
1782.6705646096
1714.4579591962
1754.0495003666
1795.55552966
1781.0022168572
1715.3249830101
1756.8030559624
1796.6733851589
4975.3512566505
4975.3510089021
4953.7293517612
4953.7290863016
4978.0171035808
4978.0167803212
4953.729071517
4953.7293711415
7869.590717104
5488.5450651591
5464.775792698
7614.9928670269
7869.5982925597
7614.9976127218
5226.9534819475
4583.6213496134
5230.0863226149
5216.7595579847
5226.9534819475
4583.6193440008
5229.4494656541
5214.9795456355
6766.7899528035
4990.6464402068
4990.4156932971
6439.2137781916
4960.0116502553
6766.3867707127
6764.8196882006
4959.3754906833
4981.7216863857
6758.5045469245
6424.932862216
4981.9136939071
6766.428573343
6765.7080138083
4966.6783819773
4965.4483926785
3547.9578209206
3906.6717016995
3682.8770744322
3322.6614408526
3569.166052156
3925.3757677322
3656.8354851013
3296.5992128218
4941.8094886891
4546.02110866
5504.0232934566
4941.7714810634
4941.699037033
4941.8309648307
3159.8907110637
4413.4502114901
4253.8529645652
3239.7016444722
3234.480369353
4437.7182627799
4231.0560220896
3254.1048704574
4987.752282314
4987.7521314528
4933.4190984006
4933.4189730176
4935.6272983922
4935.6271641805
4988.3497880674
4988.3496351079
2100.9360211517
2139.8995565756
1954.6756750909
2138.4709016089
2075.3065845238
2111.2823665373
2005.7950692269
2139.9814098201
3565.9081047286
4939.6531945653
4808.7500962684
3711.0394087862
3536.2359596596
4992.4775433792
4804.9253540821
3574.7738017384
4305.9719863471
5144.0437255117
6037.0163239586
6067.2628349416
4453.2208507267
3418.161841917
5690.7078216354
5682.4716098006
8038.5444936322
5332.4177024689
5333.5904773225
8038.5444908217
8038.5452890486
8038.5458457785
4201.7256658474
5312.1076406874
5287.7002361017
4219.2802916266
3952.7587813575
5420.8642952435
5314.8673593862
3831.3208697806
6676.6953655587
4999.7096392433
4999.5852476558
6406.7565936709
4969.3326597951
6677.6766873817
6712.8662350949
4967.5719720804
4989.2167911015
6712.6805617197
6356.6027333938
4989.5912379658
6712.554280827
4975.1842120359
4972.94682857
6678.3702506865
4987.7682316325
4987.7680722967
4933.4330384575
4933.4328574495
4935.6412980441
4935.6410954306
4988.3657539836
4988.3655882089
4944.0515323855
5531.2812399487
4586.5448219372
4943.9885328882
4944.1436362148
4943.8073040471
4789.4824468059
5391.3882657171
5524.7881786382
4465.2909328824
4267.347599757
5559.4711203033
5580.7417131281
3892.9039376845
5176.6517511612
6019.7418638726
6295.1958047222
6159.0819262302
4346.9665824964
4285.0896385152
6118.099412785
6426.8463314806
2386.1748594278
2425.1857988642
2133.1367559254
2463.8210607056
2294.7217560721
2331.6999184389
2158.5114458973
2465.7443520637
4242.4496995325
5000.8971349648
5001.5697251172
3942.86164188
4976.8295435115
4243.9276014026
4248.1651580574
4973.6952380298
4995.3025793261
4246.2106487663
3938.6538300093
4996.2417324855
4248.1808401056
4976.9538445838
4973.588751306
4242.6934478793
7614.9929285018
5474.8522588257
5502.0163066196
7869.5906089054
7614.9380539494
7869.5633538886
5045.5559427924
5151.981475951
5426.0850200492
4312.900630319
4359.4688299146
5351.1926816663
5495.6053562278
3754.0891803501
4987.7782680019
4987.7784464454
4933.4435113446
4933.4436923389
4935.6517541384
4935.6519526812
4988.3757857747
4988.375969034
5641.7797169854
4579.0378955492
5534.0427974016
5180.2851809726
4585.3575758647
4274.1521308867
5140.6738749778
5520.7738776509
4942.6641544173
5246.5658435658
4573.2598169258
4942.6398487636
4942.6280809027
4942.6423627169
2696.6155613645
2660.9947686626
2286.2228250667
2840.6396413721
2470.0089489639
2442.4968688021
2273.1661796402
2820.8775005991
4905.5095731639
4693.8384220761
5036.4665833869
3893.0044540568
4217.2471021292
4889.6206707835
5108.9097348904
3486.6803530416
4052.7272927565
4987.006533539
4986.6704728165
4093.3563358421
4963.7979667179
4051.8481496035
4035.2877017382
4959.0236565187
4982.4412078178
4081.8479969709
4065.3052351414
4982.3995066859
4080.810823229
4964.3812991156
4959.346831305
4010.5999498472
4987.7508690399
4987.7510140519
4933.4168546299
4933.4169758973
4935.6250534318
4935.625215437
4988.3483750032
4988.3485309757
6775.7999674565
3994.4625846689
3998.0955251343
6776.4657243401
6775.9394772469
6776.3961754416
4382.8782020687
4279.7056394106
4771.4995924035
4563.160602847
4208.7706324244
3895.2344052882
4486.0152447211
4831.6378938492
4529.7640924382
4170.1301759225
4497.6126111165
3431.4722876433
3920.7123951808
4338.7603045127
4579.2281644573
3183.7101528958
5302.6157835576
5002.0642649639
5002.1206309767
5291.6857846729
4980.1540159324
5299.7459419147
5244.8474527101
4973.1849892915
4996.8680978492
5303.0473159984
5292.4163247544
4997.3395692684
5299.8840449318
4980.3153398549
4973.0500203819
5248.6973160406
4987.7367090042
4987.7366000226
4933.4036298766
4933.4035347245
4935.6118384835
4935.6117517448
4988.334217307
4988.3341108752
2917.4414155593
2922.0679023825
2252.0688379308
3100.9257865874
2466.9249681348
2457.204436789
2230.4938138429
3067.3009487183
4963.9468107734
5251.5582040131
5589.8679731332
4963.9241111224
4963.950031422
4963.8830647967
4124.3977833131
3714.7362249914
3954.3534496433
3082.3897017679
3582.9254425588
3834.8562030089
4067.3466319646
2931.1208893261
3935.3901249444
3853.1985977807
3861.5589296302
3876.5905068143
3512.2406966243
3514.7064658605
4085.2640507636
3807.7494232688
5168.3292270292
5002.2499448321
5003.8662067374
5140.4017106169
4981.3783107929
5165.0071447336
5114.9445028424
4972.4549301605
4996.6336470277
5168.7683515898
5141.228026441
4998.4418192397
5165.07356997
4981.3238713733
4972.0512307716
5117.6606707821
4987.7609799583
4987.760771491
4933.4263746134
4933.4261951802
4935.6346594661
4935.6344214799
4988.3585085899
4988.3582846275
6705.3342882601
4113.2747404298
4105.6296138029
6672.1914794882
6705.2837070837
6672.2026609022
5054.7828040742
4995.7090120373
4996.5522091614
5051.6408472884
4976.5556546665
5049.6016494794
5006.4044234272
4964.6826539569
4990.2856189266
5055.3787822617
5043.7001446619
4991.5098148343
5049.6999207383
4976.4350455344
4964.3373569186
5008.1423380396
3124.1241612538
3134.6829117483
2095.5295684629
3277.2232331486
2344.3478776842
2349.1212814088
2120.5132187267
3273.783882812
4987.7927333397
4987.7927403149
4933.4571838354
4933.4572129491
4935.6654787299
4935.6654202072
4988.3902650477
4988.3902478532
3813.2204701852
3403.7687123713
3499.6511398353
2894.1338214836
3296.4073453182
3450.1691084108
3676.3402551147
2785.596220733
3379.597642249
3925.3592692616
3293.2957453083
4768.7118716024
3381.8685149556
3930.3891817299
3521.1508025764
3323.0742667963
5022.1437661116
4990.5365187038
4992.3704847358
5016.9760378979
4973.6278822605
5015.1856360714
4977.9783422456
4958.5334839628
4986.2006963195
5022.8298044613
5013.158765742
4988.3369977793
5015.2250833621
4973.5442408661
4958.2037611134
4979.1396791591
4967.2524665418
4773.4816564478
4242.2962523718
4967.3165211528
4967.3945600855
4967.1443102596
4987.7828707198
4987.7831005726
4933.4472938119
4933.4475279205
4935.6555610148
4935.6557610987
4988.3803949914
4988.3806155975
4973.6291621969
4975.794788082
4976.4232396092
4971.6919882072
4961.6868926856
4965.391825189
4933.8698853262
4942.8118545376
4972.9685885133
4974.3558378902
4973.0955784537
4973.8967449821
4965.3467940834
4961.6331139057
4942.5470465875
4934.5532288005
4274.1519922053
4143.6876755742
3372.8604729764
4157.2099228144
4987.7265481311
4987.726842023
4933.3937490148
4933.3940069089
4935.6018805125
4935.602218796
4988.3240357904
4988.3243511878
4973.2428871128
4972.9739097833
4975.0794690319
4972.7062020208
4962.4168304787
4963.5684082731
4937.2956022097
4939.3419221502
4972.4741153422
4973.8571171572
4974.6384305245
4973.7286160794
4963.544198633
4962.3519217462
4939.2570635307
4937.543816041
3241.9786789099
3627.0789112266
2851.8016774304
3176.1110384631
3204.6157606846
3113.8968883323
2757.4684359934
3445.9124783431
4987.7261452198
4987.7257202611
4933.3941080761
4933.3936686087
4935.6023202113
4935.6019642385
4988.3236543753
4988.3232524038
4987.8073422229
4987.8069377394
4933.4705270891
4933.4701294322
4935.6787897485
4935.678374695
4988.4048653106
4988.4044560049
3366.8022709737
3353.1353386331
1983.8167119125
3447.3512042818
2154.9124222114
2152.5290741752
2014.814567169
3472.878886294
4244.087840544
4775.2166654401
4772.6697085378
4241.4435157138
4244.0288128149
4241.5221021356
3048.7982471619
3612.4725341809
3026.7273601205
4014.5040910013
3048.7982471619
3818.0708684631
3157.0533889089
3360.9809038627
3186.7459187807
3547.6085946767
2922.9826159866
3000.2352262456
3088.1227313316
3051.153643284
2825.5153054913
3367.7040600348
4978.2190827571
4773.4282862052
4292.382386454
4978.1291032313
4978.1095876057
4978.2134303229
3585.9410439351
2860.3831686461
3553.3130165971
3074.2543495753
2812.1311346452
1845.7004163675
3188.0599000659
3537.032237831
2860.3831686461
1861.5980695801
3455.7592683602
1830.1660502244
1874.8863518385
2842.3518286254
3576.3329731751
3289.297106551
4011.0987282199
4652.4740574058
4645.9613766328
3983.7542927714
4011.2128972394
3983.9332635371
3299.2991870949
3052.3723164857
2942.8355743249
2948.6671476215
3005.8975670997
2953.1570788677
3062.673271008
3285.0684778762
2653.8738831616
2645.1019572518
2578.5894919359
2610.7069528788
2653.8738831616
2854.1331921488
2603.0428475948
2588.2624255615
4986.7722024264
5060.8124201437
4742.3298870943
4986.8620694872
4986.8575032631
4986.7535179063
3802.7006436684
3755.5086091575
1748.3849908846
3531.4672955029
1657.1588687001
1642.2148516416
1779.2554771473
3585.5095214704
3576.3243711728
3109.0895874342
3237.4290463988
3064.7077517978
3153.0110223806
3221.5658121518
3684.3949302263
3183.9980160476
5255.9696410509
5074.813696541
5074.7208595906
5256.0475745417
5255.822246378
5256.0659763359
2423.1618189227
2426.6807124195
2332.8279611974
2362.5605956533
2423.1618189227
2436.7951248065
2350.4724477522
2346.986717991
3797.3003142087
3302.9782182676
3404.4015987588
3160.6973256945
3352.5009464883
3425.1963553875
3811.8699428488
3243.6671372312
3989.052961652
3927.1215950822
2186.4404871484
3388.1217457878
1951.6228621877
1904.7039086008
2214.7911320715
3457.9438340178
4984.5023324037
5001.5599907683
4580.5488689312
4984.4909062751
4984.4917729688
4984.4832226381
4043.7176585283
3502.7183324156
3551.455692209
3319.5610638315
3561.4535711727
3646.6865956821
3949.4262082561
3388.7686679861
2163.1311143797
2204.2413445119
2100.885345649
2118.1234384392
2163.1311143797
2153.9061223907
2110.8897832091
2109.3352709898
4953.5239763475
4951.8852485664
4955.0364809006
4953.5393825864
4953.5239763475
4953.5393825864
4945.7243120337
4950.7803673392
4953.9533793494
4955.118023613
4945.7243120337
4955.118023613
4953.5222834316
4958.1339262663
4948.6551670064
4953.5142636306
4953.5222834316
4953.5142636306
5121.2359399368
4995.4782771715
4995.9220695346
5121.3512128105
5121.7913710171
5121.4085345601
4969.543654481
4959.0410382085
4949.7221720493
4942.1294941882
4969.5444275886
4942.1288734157
4095.8104083807
4076.2143768236
2849.1155052215
3067.5319501241
2281.6267388782
2237.6647405451
2871.3776789291
3141.0756779935
4279.6592884845
3672.9598427364
3653.7305893691
3542.3627737474
3715.3351600045
3863.9635390289
4060.7559014496
3619.3451652011
4953.4965903123
4947.3328042547
4956.548729489
4953.4896154551
4953.4965903123
4953.4896154551
4934.7241079899
4947.2107293705
4959.6858720223
4971.2144246565
4934.7230714397
4971.2154826404
1999.9392727758
1992.9288141733
1951.6859963282
1965.2646723508
1999.9392727758
1956.9842474365
1955.0476426465
1962.6838099448
4980.5803410124
4985.5799965997
4985.1232881439
4980.7383029153
4980.5644826554
4980.5336971763
4453.0622755522
3785.7478720188
3703.2668645423
3806.8726485115
3817.5957925067
4016.92021753
4082.7505728128
3820.6770197522
4953.5259006657
4955.6692693387
4952.6006384327
4953.5311495874
4953.5259006657
4953.5311495874
4953.6480628282
4951.4754158946
4949.3694408858
4940.5481385505
4953.8135685458
4940.4864528414
4178.0078333993
4130.2675846314
3756.6625542978
3748.6271588331
2649.1996989219
2625.9639648391
3730.9303954908
3652.2342274029
4508.758334625
3822.017155338
3698.1145714078
4035.6864306397
4051.4067355964
4006.1532372804
3949.8025523941
3926.5040701246
1729.0627520572
1768.9282723012
1694.1870916666
1704.975894276
1729.0627520572
1769.549046747
1695.7657503042
1704.0750929764
4996.1045046024
4935.9884393693
4935.7852675734
4996.149309485
4995.987516152
4996.1487312628
4953.5643214933
4954.7224463357
4951.6288654412
4953.564244697
4953.5643214933
4953.564244697
4425.0258707798
3764.2520837693
3618.4903211501
4124.3309503714
4231.484960731
3794.2929305734
3667.8440744452
3962.385112754
4958.7122722665
4956.7298192857
4952.5694780116
4953.7679386446
4958.665728655
4953.6993835906