/*--------------------------------*- C++ -*----------------------------------*\
| =========                 |                                                 |
| \\      /  F ield         | OpenFOAM: The Open Source CFD Toolbox           |
|  \\    /   O peration     | Version:  v2106                                 |
|   \\  /    A nd           | Website:  www.openfoam.com                      |
|    \\/     M anipulation  |                                                 |
\*---------------------------------------------------------------------------*/
FoamFile
{
    version     2.0;
    format      ascii;
    class       dictionary;
    object      controlDict;
}
// * * * * * * * * * * * * * * * * * * * * * * * * * * * * * * * * * * * * * //

application     interFlow;

startFrom       latestTime;

startTime       0;

stopAt          endTime;

endTime         0.1;

deltaT          1e-8;

writeControl    adjustable;

writeInterval   0.0005;

purgeWrite      0;

writeFormat     ascii;

writePrecision  14;

writeCompression off;

timeFormat      general;

timePrecision   6;

runTimeModifiable yes;

adjustTimeStep  yes;

maxCo           0.4;

maxAlphaCo      0.4;

maxDeltaT       0.001;

maxCapillaryNum 0.9;

libs
(
    "libtwoPhaseProperties.so"
);
functions
{
    surfaceSampling
    {
        type            surfaces;
        libs            (sampling);
        writeControl    runTime;
        writeInterval   0.005;

        interpolationScheme cellPointWallModified;

        surfaceFormat ensight;

        formatOptions
        {
            vtp
            {
                format binary;
            }
        }

        // Fields to be sampled
        fields
        (
            U
            k
            omega
            nut
            alpha.water
            alpha.sugar
            alphas
            p_rgh
        );

        surfaces
        {
            freeSurface
            {
                type            isoSurface;
                isoField        alpha.water;
                isoValue        0.5;
                interpolate     true;
            }
        }
    }

}
// ************************************************************************* //
