/*--------------------------------*- C++ -*----------------------------------*\
| =========                 |                                                 |
| \\      /  F ield         | OpenFOAM: The Open Source CFD Toolbox           |
|  \\    /   O peration     | Version:  v2106                                 |
|   \\  /    A nd           | Website:  www.openfoam.com                      |
|    \\/     M anipulation  |                                                 |
\*---------------------------------------------------------------------------*/
FoamFile
{
    version     2.0;
    format      ascii;
    arch        "LSB;label=32;scalar=64";
    class       dictionary;
    location    "system";
    object      topoSetDict;
}
// * * * * * * * * * * * * * * * * * * * * * * * * * * * * * * * * * * * * * //

actions
(
    {
        name    c0;
        type    cellSet;
        action  clear;
    }
    {
        name    c0;
        type    cellSet;
        action  invert;
    }
    {
        name    c0;
        type    cellSet;
        action  subtract;
        source  boxToCell;
        box     (-0.00072 0.0007 -0.0003) (0.00072 0.00072 0);
    }
    {
        name    c0;
        type    cellSet;
        action  subtract;
        source  boxToCell;
        box     (-0.00072 -0.00072 -0.0003) (0.00072 -0.0007 0);
    }
    {
        name    c0;
        type    cellSet;
        action  subtract;
        source  boxToCell;
        box     (-0.00072 -0.0007 -0.0003) (-0.0007 0.0007 0);
    }
    {
        name    c0;
        type    cellSet;
        action  subtract;
        source  boxToCell;
        box     (0.0007 -0.0007 -0.0003) (0.00072 0.0007 0);
    }


);

// ************************************************************************* //


